6
 generated by VMD
 H        -1.737056       -0.394088        0.965251
 O        -2.856739       -0.397535        0.963507
 H        -3.009008       -0.460859       -0.117768
 H         0.155954        0.483656        1.634374
 O        -0.101962       -0.389043        1.037181
 H         0.179740       -1.189843        1.718084
