   9

 Si	    1.175711    -2.035955     1.810845
 Si	    1.175468     2.036059     3.621623
 Si	    2.623906     0.000054    -0.000273
  O	    2.205114     2.544155     2.468049
  O	    1.669583     0.637767     4.278712
  O	    3.588461     1.127035     0.657269
  O	    2.205205    -2.544124     2.964096
  O	    1.669613    -0.637665     1.153373
  O	    3.588397    -1.127081     4.774792
