  71

 Ti	   -0.103765     0.491251    -0.338756
 Ti	    2.795670     2.157170     1.276994
  O	    1.614296     1.196082     0.224090
  O	   -1.452689    -0.933772     0.042320
  O	    3.906480     0.930935     1.413918
  O	    0.975625     3.252658     1.544170
 Ti	    4.412784    -0.058733    -0.228638
 Ti	    7.043839     2.001105     1.462214
  O	    6.016697     1.226276     0.053107
  O	    2.784809    -1.037744     0.189784
  O	    8.668334     1.187661     1.252403
  O	    5.695911     3.680846     1.213083
 Ti	   -0.113783     4.517800     0.319766
 Ti	    2.285942     6.788698     1.427380
  O	    1.324726     5.836219     0.210494
  O	   -1.475278     3.001704    -0.164066
  O	    3.686562     5.429023     1.824763
  O	    0.916267     8.122511     1.389238
 Ti	    4.404789     4.463788     0.170470
 Ti	    7.027270     6.943167     1.592964
  O	    6.215272     6.203061     0.163013
  O	    2.830781     3.659374    -0.155835
  O	    8.672623     5.501088     1.590573
  O	    5.411551     8.106424     1.301514
 Ti	    0.362533    -0.166325     2.542158
 Ti	    2.403249     2.131312     4.502530
  O	    1.519082     1.285543     2.743304
  O	   -1.154589    -1.166327     3.037285
  O	    3.455633     0.731678     4.599162
  O	    1.073266     3.603913     4.523024
 Ti	    4.871694    -0.133552     2.724985
 Ti	    6.847633     2.422066     4.461913
  O	    5.844504     1.392804     2.818038
  O	    3.477084    -1.550027     3.138150
  O	    6.482473     1.042991     5.679235
  O	    5.699828     3.618338     4.537723
 Ti	    0.152536     4.514013     3.102256
 Ti	    2.665412     7.004970     4.506952
  O	    1.448044     5.957248     2.813980
  O	   -1.307412     2.885858     3.319339
  O	    4.313244     5.890600     4.676966
  O	    0.935142     8.508680     4.472913
 Ti	    4.827675     4.672640     3.208641
 Ti	    7.101666     7.171097     4.422532
  O	    6.490831     5.546059     2.861670
  O	    3.279515     3.184404     2.884709
  O	    8.446152     5.687748     4.141101
  O	    5.629821     8.121396     4.343346
 Ti	    0.111258    -0.096642     5.951516
 Ti	    2.136342     2.333810     7.385895
  O	    1.150770     1.549865     5.726381
  O	   -1.400407    -1.270543     5.876289
  O	    0.569368     3.500864     7.598680
 Ti	    4.846575     0.143418     5.974363
 Ti	    6.566450     2.229755     7.462591
  O	    3.516304     1.020947     7.215726
  O	    3.292979    -1.363747     6.075505
  O	    8.083736     0.909569     7.357238
  O	    5.651997     3.717160     7.751537
 Ti	    0.071906     4.267408     6.099792
 Ti	    2.148054     7.190547     7.433357
  O	    1.492055     6.199353     6.225921
  O	   -1.373036     3.302068     6.055196
  O	    3.801895     5.795330     7.575364
  O	    1.241111     8.725631     7.584592
 Ti	    4.784355     4.918188     6.242402
 Ti	    7.182275     6.978476     7.479956
  O	    6.228904     6.269868     6.089358
  O	    3.190351     3.396681     6.179627
  O	    8.415698     5.669994     7.563404
  O	    5.690878     8.452145     7.487466
