  71

 Ti	    0.020551     0.035689    -0.000000
 Ti	    2.308182     2.334748     1.500358
  O	    1.402775     1.360728    -0.000001
  O	   -1.378160    -1.396413     0.000001
  O	    3.706826     0.902582     1.500356
  O	    0.926022     3.659853     1.500357
 Ti	    4.678014     0.035689    -0.000000
 Ti	    6.965645     2.334748     1.500358
  O	    6.060239     1.360728    -0.000001
  O	    3.279304    -1.396413     0.000001
  O	    8.364289     0.902582     1.500356
  O	    5.583486     3.659853     1.500357
 Ti	    0.020551     4.633814    -0.000000
 Ti	    2.308182     6.932873     1.500358
  O	    1.402775     5.958852    -0.000001
  O	   -1.378160     3.201711     0.000001
  O	    3.706826     5.500706     1.500356
  O	    0.926022     8.257977     1.500357
 Ti	    4.678014     4.633814    -0.000000
 Ti	    6.965645     6.932873     1.500358
  O	    6.060239     5.958852    -0.000001
  O	    3.279304     3.201711     0.000001
  O	    8.364289     5.500706     1.500356
  O	    5.583486     8.257977     1.500357
 Ti	    0.020551     0.035689     3.000714
 Ti	    2.308182     2.334748     4.501072
  O	    1.402775     1.360728     3.000713
  O	   -1.378160    -1.396413     3.000715
  O	    3.706826     0.902582     4.501070
  O	    0.926022     3.659853     4.501071
 Ti	    4.678014     0.035689     3.000714
 Ti	    6.965645     2.334748     4.501072
  O	    6.060239     1.360728     3.000713
  O	    3.279304    -1.396413     3.000715
  O	    8.364289     0.902582     4.501070
  O	    5.583486     3.659853     4.501071
 Ti	    0.020551     4.633814     3.000714
 Ti	    2.308182     6.932873     4.501072
  O	    1.402775     5.958852     3.000713
  O	   -1.378160     3.201711     3.000715
  O	    3.706826     5.500706     4.501070
  O	    0.926022     8.257977     4.501071
 Ti	    4.678014     4.633814     3.000714
 Ti	    6.965645     6.932873     4.501072
  O	    6.060239     5.958852     3.000713
  O	    3.279304     3.201711     3.000715
  O	    8.364289     5.500706     4.501070
  O	    5.583486     8.257977     4.501071
 Ti	    0.020551     0.035689     6.001428
 Ti	    2.308182     2.334748     7.501786
  O	    1.402775     1.360728     6.001427
  O	   -1.378160    -1.396413     6.001429
  O	    0.926022     3.659853     7.501785
 Ti	    4.678014     0.035689     6.001428
 Ti	    6.965645     2.334748     7.501786
  O	    6.060239     1.360728     6.001427
  O	    3.279304    -1.396413     6.001429
  O	    8.364289     0.902582     7.501784
  O	    5.583486     3.659853     7.501785
 Ti	    0.020551     4.633814     6.001428
 Ti	    2.308182     6.932873     7.501786
  O	    1.402775     5.958852     6.001427
  O	   -1.378160     3.201711     6.001429
  O	    3.706826     5.500706     7.501784
  O	    0.926022     8.257977     7.501785
 Ti	    4.678014     4.633814     6.001428
 Ti	    6.965645     6.932873     7.501786
  O	    6.060239     5.958852     6.001427
  O	    3.279304     3.201711     6.001429
  O	    8.364289     5.500706     7.501784
  O	    5.583486     8.257977     7.501785
