   1

  H	   -0.295398     0.762930     0.000000
   1

  H	   -0.386276     0.671248     0.000000
   1

  H	   -0.473180     0.575806     0.000000
   1

  H	   -0.530856     0.460354     0.000000
   1

  H	   -0.455949     0.355297     0.000000
   1

  H	   -0.348531     0.283867     0.000000
   1

  H	   -0.221355     0.262448     0.000000
   1

  H	   -0.092724     0.253618     0.000000
   1

  H	    0.034500     0.232890     0.000000
   1

  H	    0.117028     0.133907     0.000000
   1

  H	    0.203212     0.038112     0.000000
   1

  H	    0.329941     0.014837     0.000000
