   6

  C	    0.000000     0.000000     0.003965
  C	    0.000000     0.000000     1.331035
  H	    0.922328     0.000000    -0.568770
  H	    0.922328     0.000000     1.903770
  H	   -0.922328     0.000000     1.903770
  H	   -0.922328     0.000000    -0.568770
   6

  C	    0.000000     0.000000    -0.003809
  C	    0.000000     0.000000     1.337842
  H	    0.922107     0.000000    -0.577440
  H	    0.847296     0.112722     1.911472
  H	   -0.847296    -0.112722     1.911472
  H	   -0.922107     0.000000    -0.577440
   6

  C	    0.000000     0.000000    -0.011567
  C	    0.000000     0.000000     1.344634
  H	    0.921892     0.000000    -0.586083
  H	    0.771879     0.225189     1.919150
  H	   -0.771879    -0.225189     1.919150
  H	   -0.921892     0.000000    -0.586083
   6

  C	    0.000000     0.000000    -0.020010
  C	    0.000000     0.000000     1.352028
  H	    0.921695     0.000000    -0.595439
  H	    0.686633     0.347488     1.927457
  H	   -0.686633    -0.347488     1.927457
  H	   -0.921695     0.000000    -0.595439
   6

  C	    0.000000     0.000000    -0.027575
  C	    0.000000     0.000000     1.358653
  H	    0.921557     0.000000    -0.603769
  H	    0.606851     0.456963     1.934847
  H	   -0.606851    -0.456963     1.934847
  H	   -0.921557     0.000000    -0.603769
   6

  C	    0.000000     0.000000    -0.036356
  C	    0.000000     0.000000     1.366346
  H	    0.921482     0.000000    -0.613320
  H	    0.506721     0.583801     1.943310
  H	   -0.506721    -0.583801     1.943310
  H	   -0.921482     0.000000    -0.613320
   6

  C	    0.000000     0.000000    -0.045211
  C	    0.000000     0.000000     1.374106
  H	    0.921558     0.000000    -0.622744
  H	    0.392559     0.711278     1.951639
  H	   -0.392559    -0.711278     1.951639
  H	   -0.921558     0.000000    -0.622744
   6

  C	    0.000000     0.000000    -0.051464
  C	    0.000000     0.000000     1.379592
  H	    0.921857     0.000000    -0.629063
  H	    0.290534     0.800636     1.957191
  H	   -0.290534    -0.800636     1.957191
  H	   -0.921857     0.000000    -0.629063
   6

  C	    0.000000     0.000000    -0.057911
  C	    0.000000     0.000000     1.385260
  H	    0.922622     0.000000    -0.634949
  H	    0.145259     0.891504     1.962297
  H	   -0.145259    -0.891504     1.962297
  H	   -0.922622     0.000000    -0.634949
   6

  C	    0.000000     0.000000    -0.060516
  C	    0.000000     0.000000     1.387573
  H	    0.923956     0.000000    -0.635920
  H	   -0.002988     0.925390     1.962977
  H	    0.002988    -0.925390     1.962977
  H	   -0.923956     0.000000    -0.635920
   6

  C	    0.000000     0.000000    -0.059195
  C	    0.000000     0.000000     1.386451
  H	    0.925444     0.000000    -0.632454
  H	   -0.117171     0.902247     1.959710
  H	    0.117171    -0.902247     1.959710
  H	   -0.925444     0.000000    -0.632454
   6

  C	    0.000000     0.000000    -0.055423
  C	    0.000000     0.000000     1.383191
  H	    0.927356     0.000000    -0.625769
  H	   -0.238583     0.842586     1.953537
  H	    0.238583    -0.842586     1.953537
  H	   -0.927356     0.000000    -0.625769
   6

  C	    0.000000     0.000000    -0.051522
  C	    0.000000     0.000000     1.379807
  H	    0.928784     0.000000    -0.619610
  H	   -0.316133     0.782406     1.947895
  H	    0.316133    -0.782406     1.947895
  H	   -0.928784     0.000000    -0.619610
   6

  C	    0.000000     0.000000    -0.045618
  C	    0.000000     0.000000     1.374680
  H	    0.930751     0.000000    -0.610554
  H	   -0.416559     0.691846     1.939616
  H	    0.416559    -0.691846     1.939616
  H	   -0.930751     0.000000    -0.610554
   6

  C	    0.000000     0.000000    -0.040803
  C	    0.000000     0.000000     1.370495
  H	    0.932185     0.000000    -0.603403
  H	   -0.483523     0.618464     1.933095
  H	    0.483523    -0.618464     1.933095
  H	   -0.932185     0.000000    -0.603403
   6

  C	    0.000000     0.000000    -0.034064
  C	    0.000000     0.000000     1.364636
  H	    0.934128     0.000000    -0.593482
  H	   -0.571715     0.515936     1.924054
  H	    0.571715    -0.515936     1.924054
  H	   -0.934128     0.000000    -0.593482
   6

  C	    0.000000     0.000000    -0.028364
  C	    0.000000     0.000000     1.359678
  H	    0.935676     0.000000    -0.585222
  H	   -0.637870     0.429474     1.916536
  H	    0.637870    -0.429474     1.916536
  H	   -0.935676     0.000000    -0.585222
   6

  C	    0.000000     0.000000    -0.021186
  C	    0.000000     0.000000     1.353434
  H	    0.937590     0.000000    -0.574870
  H	   -0.718162     0.320699     1.907117
  H	    0.718162    -0.320699     1.907117
  H	   -0.937590     0.000000    -0.574870
   6

  C	    0.000000     0.000000    -0.014723
  C	    0.000000     0.000000     1.347811
  H	    0.939308     0.000000    -0.565555
  H	   -0.789973     0.222765     1.898643
  H	    0.789973    -0.222765     1.898643
  H	   -0.939308     0.000000    -0.565555
   6

  C	    0.000000     0.000000    -0.007387
  C	    0.000000     0.000000     1.341428
  H	    0.941207     0.000000    -0.555052
  H	   -0.867046     0.111742     1.889093
  H	    0.867046    -0.111742     1.889093
  H	   -0.941207     0.000000    -0.555052
   6

  C	    0.000000     0.000000    -0.000000
  C	    0.000000     0.000000     1.335000
  H	    0.943102     0.000000    -0.544500
  H	   -0.943102     0.000000     1.879500
  H	    0.943102    -0.000000     1.879500
  H	   -0.943102     0.000000    -0.544500
